output/compact_ny_2025/electrical_fixed_peak/S5_2025_HIGH_TOTAL_EAST_PUBLIC/audit_branch.csv
branch_row,device_key,from_bus,to_bus,online,rate_a_mva,from_mva,to_mva,from_overload_mva,to_overload_mva,angle_deg,angle_min_deg,angle_max_deg,angle_below_min_deg,angle_above_max_deg,violated,invalid_limit_bounds,stored_terminal_flow_error_mva,stored_terminal_flow_inconsistent
1,NPCC_S7:BRANCH_ROW:33,37,38,1,2500,35.2053349789115,39.1988209510749,0,0,-0.337200009316386,-360,360,0,0,0,0,7.051935299273e-13,0
2,NPCC_S7:BRANCH_ROW:34,37,39,1,3388,1512.90917600947,1492.51096146013,0,0,6.60469781334997,-360,360,0,0,0,0,2.27817331817184e-13,0
3,NPCC_S7:BRANCH_ROW:35,37,40,1,2500,173.20279422682,174.222141221858,0,0,-3.07970003423289,-360,360,0,0,0,0,3.63489663255583e-13,0
4,NPCC_S7:BRANCH_ROW:36,37,43,0,3745.98196383403,0,0,0,0,-10.6148858275552,-360,360,0,0,0,0,0,0
5,NPCC_S7:BRANCH_ROW:37,38,69,1,1216,355.112731723569,360.156549174373,0,0,-9.97094734360874,-360,360,0,0,0,0,8.88178419700125e-16,0
6,NPCC_S7:BRANCH_ROW:38,39,73,1,2500,981.213184484974,979.780197895005,0,0,10.8784046703727,-360,360,0,0,0,0,7.95807864051312e-13,0
7,NPCC_S7:BRANCH_ROW:39,39,73,1,2500,981.213184484974,979.780197895005,0,0,10.8784046703727,-360,360,0,0,0,0,7.95807864051312e-13,0
8,NPCC_S7:BRANCH_ROW:40,40,44,0,1328.76341358641,0,0,0,0,-8.60545420559745,-360,360,0,0,0,0,0,0
9,NPCC_S7:BRANCH_ROW:41,41,42,1,2500,445.985603477279,453.593447082521,0,0,-1.69448755473826,-360,360,0,0,0,0,3.97903932025656e-13,0
10,NPCC_S7:BRANCH_ROW:42,41,45,1,314.254622579561,39.9429910278604,46.6599801970535,0,0,-5.52754706864582,-360,360,0,0,0,0,1.00485917355762e-14,0
11,NPCC_S7:BRANCH_ROW:43,43,44,1,2500,247.221355617194,242.488053397567,0,0,-1.07026841227518,-360,360,0,0,0,0,2.00971834711523e-13,0
12,NPCC_S7:BRANCH_ROW:44,43,50,1,3463.47124449306,423.660156127037,428.737211346657,0,0,-5.85226622468575,-360,360,0,0,0,0,3.4576501834057e-13,0
13,NPCC_S7:BRANCH_ROW:45,43,50,1,3463.47124449306,423.660156127037,428.737211346657,0,0,-5.85226622468575,-360,360,0,0,0,0,3.4576501834057e-13,0
14,NPCC_S7:BRANCH_ROW:46,44,45,1,2500,290.411322708265,286.716761223585,0,0,3.41601054949579,-360,360,0,0,0,0,5.6843418860808e-14,0
15,NPCC_S7:BRANCH_ROW:47,44,48,0,6896.14528055676,0,0,0,0,-34.4656955461644,-360,360,0,0,0,0,0,0
16,NPCC_S7:BRANCH_ROW:48,45,46,1,2040.85471944324,131.91877063814,136.550259534001,0,0,-31.0137270905355,-360,360,0,0,0,0,1.0054870144021e-13,0
17,NPCC_S7:BRANCH_ROW:49,45,51,1,489.56239109923,57.9895877340032,59.8997003043409,0,0,-6.09388565150507,-360,360,0,0,0,0,9.6419530013528e-14,0
18,NPCC_S7:BRANCH_ROW:50,45,71,1,166.495119914644,20.5954871692999,21.7094222347688,0,0,-6.73004070998136,-360,360,0,0,0,0,1.06673888828584e-14,0
19,NPCC_S7:BRANCH_ROW:51,46,47,1,2500,137.934302535732,147.241378117995,0,0,-10.5133285523477,-360,360,0,0,0,0,9.2370555648813e-14,0
20,NPCC_S7:BRANCH_ROW:52,46,49,1,2500,10.3461612413102,7.64594795831947,0,0,-2.01457108067702,-360,360,0,0,0,0,2.30509679508893e-14,0
21,NPCC_S7:BRANCH_ROW:53,47,48,1,2500,206.943480992734,207.053401318004,0,0,3.64534954722309,-360,360,0,0,0,0,3.17764371615651e-14,0
22,NPCC_S7:BRANCH_ROW:54,50,51,1,2500,220.328929007153,215.917319509033,0,0,2.10412271040129,-360,360,0,0,0,0,2.00971834711523e-13,0
23,NPCC_S7:BRANCH_ROW:55,50,52,1,2858.06690137886,236.43017145681,301.363554157935,0,0,-2.78325744224998,-360,360,0,0,0,0,3.59509347182254e-13,0
24,NPCC_S7:BRANCH_ROW:56,51,53,1,290.964700741948,3.60516012846862,24.6368377347932,0,0,-0.991708515996617,-360,360,0,0,0,0,3.58036167304945e-15,0
25,NPCC_S7:BRANCH_ROW:57,51,72,1,2500,86.1550061210917,107.317846278645,0,0,-1.04844685745262,-360,360,0,0,0,0,1.58882185807825e-14,0
26,NPCC_S7:BRANCH_ROW:58,52,53,1,2500,190.096497439597,186.020216928037,0,0,3.89567163665466,-360,360,0,0,0,0,1.79754673591127e-13,0
27,NPCC_S7:BRANCH_ROW:59,53,55,1,997.983883346124,112.472011239802,120.422519363145,0,0,-7.40010269583313,-360,360,0,0,0,0,1.58882185807825e-14,0
28,NPCC_S7:BRANCH_ROW:60,53,65,1,785.968397879188,32.4269899174659,30.6236934881183,0,0,1.5725581971624,-360,360,0,0,0,0,7.32410687763558e-15,0
29,NPCC_S7:BRANCH_ROW:61,54,56,1,789.941803,56.1614442960805,58.6176919117375,0,0,-0.349967916805046,-360,360,0,0,0,0,3.65156926659891e-13,0
30,NPCC_S7:BRANCH_ROW:62,54,62,1,789.941803,57.8863819812221,56.6634461992851,0,0,2.26124562038989,-360,360,0,0,0,0,8.09854238107949e-15,0
31,NPCC_S7:BRANCH_ROW:65,55,57,1,789.941803,29.9639778634745,29.7108109570688,0,0,0.691182404054743,-360,360,0,0,0,0,7.35762548035902e-13,0
32,NPCC_S7:BRANCH_ROW:66,55,59,1,789.941803,14.8544922862592,16.4467250468938,0,0,0.597001136832844,-360,360,0,0,0,0,1.76968296418523e-13,0
33,NPCC_S7:BRANCH_ROW:67,56,58,1,2500,221.08453162419,220.470527447215,0,0,1.85653111557145,-360,360,0,0,0,0,3.03543989777123e-14,0
34,NPCC_S7:BRANCH_ROW:68,57,59,1,2500,8.76833652379687,11.6828833957182,0,0,-0.0941812672218987,-360,360,0,0,0,0,3.973810805043e-13,0
35,NPCC_S7:BRANCH_ROW:69,58,60,1,2500,75.0904127774647,74.3577404649213,0,0,-1.44379988913067,-360,360,0,0,0,0,1.43214466921978e-14,0
36,NPCC_S7:BRANCH_ROW:70,58,62,1,2500,74.361955714266,73.6679483919143,0,0,0.754682421623478,-360,360,0,0,0,0,3.57326000558946e-13,0
37,NPCC_S7:BRANCH_ROW:71,59,61,1,2500,32.2584006199194,34.3083110387166,0,0,-3.00007047429547,-360,360,0,0,0,0,9.17020024299142e-14,0
38,NPCC_S7:BRANCH_ROW:73,62,63,1,620,128.995031338762,126.622137520871,0,0,5.95535224538599,-360,360,0,0,0,0,7.65277946916073e-14,0
39,NPCC_S7:BRANCH_ROW:74,63,64,1,2500,79.8393722501757,79.7637161555325,0,0,2.10236216807381,-360,360,0,0,0,0,1.42147573071571e-14,0
40,NPCC_S7:BRANCH_ROW:75,63,67,1,2500,50.5404708744786,45.6237443784938,0,0,2.49331189074548,-360,360,0,0,0,0,9.34573054533836e-14,0
41,NPCC_S7:BRANCH_ROW:76,64,65,1,2500,13.1394932172243,11.3364050138015,0,0,0.601982287010122,-360,360,0,0,0,0,9.02452213998155e-14,0
42,NPCC_S7:BRANCH_ROW:77,64,68,1,2500,7.82802776881286,11.2353312239679,0,0,-1.03889688624257,-360,360,0,0,0,0,4.51226106999078e-14,0
43,NPCC_S7:BRANCH_ROW:78,66,67,1,2500,121.390135460033,121.027105032595,0,0,-1.5644859410676,-360,360,0,0,0,0,8.74754295825051e-14,0
44,NPCC_S7:BRANCH_ROW:79,66,69,1,2500,138.598351118851,137.672443730209,0,0,2.12057893101956,-360,360,0,0,0,0,8.55606755492907e-14,0
45,NPCC_S7:BRANCH_ROW:81,67,68,1,2500,53.8507152777448,53.447519273119,0,0,-1.42984660891423,-360,360,0,0,0,0,4.29643400765934e-14,0
46,NPCC_S7:BRANCH_ROW:82,67,70,1,2500,19.5268189361813,16.5371760251886,0,0,-0.554292046826882,-360,360,0,0,0,0,9.02452213998155e-14,0
47,NPCC_S7:BRANCH_ROW:84,68,71,1,2500,9.00309173722323,2.01041866321204,0,0,0.423874433610612,-360,360,0,0,0,0,4.46353841693139e-14,0
48,NPCC_S7:BRANCH_ROW:85,69,71,1,2500,222.73169051489,223.093883715527,0,0,-4.69103704739078,-360,360,0,0,0,0,5.85928550210846e-14,0
49,NPCC_S7:BRANCH_ROW:86,70,71,1,2500,16.5371760251885,16.5255217610887,0,0,-0.45168012847674,-360,360,0,0,0,0,4.34595239541968e-14,0
50,NPCC_S7:BRANCH_ROW:87,71,72,1,2500,57.4556100393842,56.76113566537,0,0,-0.412291798976332,-360,360,0,0,0,0,7.08630579235392e-13,0
51,NPCC_S7:BRANCH_ROW:88,73,74,0,1599.84337349398,0,0,0,0,7.38966955251859,-360,360,0,0,0,0,0,0
52,NPCC_S7:BRANCH_ROW:89,73,74,0,1599.84337349398,0,0,0,0,7.38966955251859,-360,360,0,0,0,0,0,0
53,NPCC_S7:BRANCH_ROW:90,74,77,1,2500,36.8179580327299,29.8077191529806,0,0,-0.0334798869666848,-360,360,0,0,0,0,4.26595747167833e-12,0
54,NPCC_S7:BRANCH_ROW:91,74,78,1,2889.50495049505,864.721027279998,861.510958409027,0,0,2.18355732570987,-360,360,0,0,0,0,1.42449199371886e-12,0
55,NPCC_S7:BRANCH_ROW:92,74,78,1,2889.50495049505,864.721027279998,861.510958409027,0,0,2.18355732570987,-360,360,0,0,0,0,1.42449199371886e-12,0
56,NPCC_S7:BRANCH_ROW:94,76,77,0,4611.31325301205,0,0,0,0,0.494331328027272,-360,360,0,0,0,0,0,0
57,NPCC_S7:BRANCH_ROW:95,78,79,0,908.848753535103,0,0,0,0,2.49755147872107,-360,360,0,0,0,0,0,0
58,NPCC_S7:BRANCH_ROW:96,78,80,1,984.654731457801,187.707642875424,172.471101051433,0,0,5.9494178023248,-360,360,0,0,0,0,2.92964275105423e-14,0
59,NPCC_S7:BRANCH_ROW:97,78,81,0,503.818330764024,0,0,0,0,-0.16169775515894,-360,360,0,0,0,0,0,0
60,NPCC_S7:BRANCH_ROW:98,78,82,1,451.473569126203,193.868707014669,194.366357468542,0,0,3.36607110551556,-360,360,0,0,0,0,3.80405894346739e-13,0
61,NPCC_S7:BRANCH_ROW:219,40,41,1,2500,96.9051614530998,98.2971618023771,0,0,0.338103412544165,-360,360,0,0,0,0,7.105427357601e-15,0
62,NPCC_S7:BRANCH_ROW:220,49,48,1,2500,58.7880627883733,59.9997403966368,0,0,-4.85340792444761,-360,360,0,0,0,0,7.94410929039127e-15,0
63,NPCC_S7:BRANCH_ROW:222,54,52,1,4583.01611665388,421.836587347138,430.380469141521,0,0,5.45271248704275,-360,360,0,0,0,0,2.34371420084339e-13,0
64,NPCC_S7:BRANCH_ROW:223,54,55,1,2500,262.729849602624,262.687661266557,0,0,1.94828142786428,-360,360,0,0,0,0,5.68867704167049e-14,0
65,NPCC_S7:BRANCH_ROW:224,56,57,1,2500,37.273937038196,37.0900509964726,0,0,2.98943174872407,-360,360,0,0,0,0,1.86914610906767e-13,0
66,NPCC_S7:BRANCH_ROW:225,58,59,1,2500,199.766309374727,198.880853067148,0,0,1.03871936593071,-360,360,0,0,0,0,2.92964275105423e-14,0
67,NPCC_S7:BRANCH_ROW:226,60,61,1,2500,14.2345736484189,14.2226033792452,0,0,-0.517551219234086,-360,360,0,0,0,0,8.8557947091502e-14,0
68,NPCC_S7:BRANCH_ROW:227,75,76,1,2500,12.3732861984966,12.3731383616062,0,0,0.052434561813385,-360,360,0,0,0,0,3.60822483003176e-16,0
69,NPCC_S7:BRANCH_ROW:234,38,39,1,1216,588.752661369841,583.097813329086,0,0,6.94189782266635,-360,360,0,0,0,0,1.06581410364015e-14,0
70,NPCC_S7:BRANCH_ROW:235,73,9002,0,2432,0,0,0,0,3.91751337894502,-360,360,0,0,0,0,0,0
71,NPCC_S7:BRANCH_ROW:236,9002,74,0,2432,0,0,0,0,3.47215617357357,-360,360,0,0,0,0,0,0
72,NPCC_S7:BRANCH_ROW:237,74,78,1,866.851485148515,259.156425338405,261.080135842592,0,0,2.18355732570987,-360,360,0,0,0,0,7.50354660251792e-13,0
73,NPCC_S7:BRANCH_ROW:238,77,78,1,650.138613861386,196.50085376713,197.700693920903,0,0,2.21703721267656,-360,360,0,0,0,0,7.26284516712249e-13,0
74,NPCC_S7:BRANCH_ROW:239,78,81,0,1158.78216075726,0,0,0,0,-0.16169775515894,-360,360,0,0,0,0,0,0
75,NPCC_S7:BRANCH_ROW:240,78,79,0,1390.53859290871,0,0,0,0,2.49755147872107,-360,360,0,0,0,0,0,0
76,NPCC_S7:BRANCH_ROW:241,78,82,1,1390.53859290871,596.122236861119,597.652450304568,0,0,3.36607110551556,-360,360,0,0,0,0,1.43831822798347e-12,0
77,NPCC_S7:BRANCH_ROW:242,78,9003,1,2865.3452685422,174.388212832445,175.435550764023,0,0,1.93757665617639,-360,360,0,0,0,0,3.17764371615651e-14,0
78,NPCC_S7:BRANCH_ROW:243,9003,80,1,5000,361.596382765597,364.053626485244,0,0,4.01184114614841,-360,360,0,0,0,0,2.1316282072803e-14,0
79,NPCC_S7:BRANCH_ROW:244,81,80,1,2950,364.536678239463,369.777185580504,0,0,6.11111555748374,-360,360,0,0,0,0,8.17957836213632e-13,0
80,NPCC_S7:BRANCH_ROW:245,39,9001,1,5000,320.189477261065,320.428040131772,0,0,6.76456964185087,-360,360,0,0,0,0,5.76033521818469e-14,0
81,NPCC_S7:BRANCH_ROW:246,9001,73,0,5000,0,0,0,0,4.11383502852178,-360,360,0,0,0,0,0,0
82,PERFORM2019:AC:651:858:1,73,858,1,1216,538.474035511743,538.087397378011,0,0,1.67758078483087,-360,360,0,0,0,0,2.75500060889786e-12,0
83,PERFORM2019:AC:651:858:2,73,858,1,1216,538.474141011638,538.087288226657,0,0,1.67758078483087,-360,360,0,0,0,0,3.04006022957322e-12,0
84,PERFORM2019:AC:651:902:1,73,9002,1,1216,539.519077362441,538.59819625523,0,0,3.91751337894502,-360,360,0,0,0,0,1.51063457746185e-12,0
85,PERFORM2019:AC:651:902:2,73,9002,1,1216,539.51918252459,538.598082683629,0,0,3.91751337894502,-360,360,0,0,0,0,1.42512981012074e-12,0
86,PERFORM2019:AC:858:902:1,858,9002,1,1216,538.087451953838,537.505600985177,0,0,2.23993259411415,-360,360,0,0,0,0,7.50354660251792e-13,0
87,PERFORM2019:AC:858:902:2,858,9002,1,1216,538.087233651131,537.505828596155,0,0,2.23993259411415,-360,360,0,0,0,0,7.44545724127746e-13,0
88,PERFORM2019:AC:897:902:1,9002,74,1,1216,1076.10512902259,1085.24729589049,0,0,3.47215617357357,-360,360,0,0,0,0,1.29747516104013e-12,0
89,PERFORM2019:AC:897:902:2,9002,74,1,1216,1076.10251418871,1085.25050402578,0,0,3.47215617357357,-360,360,0,0,0,0,1.47792889038101e-12,0
90,PERFORM2019:AC:774:1519:1,76,774,1,1216,108.084108003304,106.577516276629,0,0,0.167813103617128,-360,360,0,0,0,0,1.4210854715202e-14,0
91,PERFORM2019:AC:774:900:1,774,77,1,1725,106.577516276633,104.851577220372,0,0,0.326518224410144,-360,360,0,0,0,0,2.84139812274572e-12,0
92,PERFORM2019:AC:900:1519:1,76,77,1,1725,107.193590149509,103.919740252517,0,0,0.494331328027272,-360,360,0,0,0,0,1.42333189759033e-12,0
93,NY2025:CEEC:351,43,9101,1,2000,435.405761914534,433.141184242145,0,0,6.56342906162153,-360,360,0,0,0,0,2.28370690251555e-13,0
94,NY2025:CEEC:352,43,9101,1,2000,435.405761914534,433.141184242145,0,0,6.56342906162153,-360,360,0,0,0,0,2.28370690251555e-13,0
95,NY2025:CEEC:361,9101,37,1,2000,678.520600018049,674.331454501504,0,0,4.05145676593363,-360,360,0,0,0,0,1.4210854715202e-12,0
96,NY2025:CEEC:362,9101,37,1,2000,678.520600018049,674.331454501504,0,0,4.05145676593363,-360,360,0,0,0,0,1.4210854715202e-12,0
97,NY2025:CEEC:14,43,9102,1,2000,370.853805407579,370.181165190749,0,0,6.00313647958041,-360,360,0,0,0,0,1.71177957686696e-13,0
98,NY2025:CEEC:371,9101,9102,1,2000,490.898373389283,491.201006386312,0,0,-0.560292582041118,-360,360,0,0,0,0,5.69543329542959e-14,0
99,NY2025:CEEC:LEGACY230:1,40,9103,1,1328.76341358641,213.848343824375,217.606823329941,0,0,-3.30300952374675,-360,360,0,0,0,0,8.55606755492907e-14,0
100,NY2025:CEEC:LEGACY230:2,9103,44,1,1328.76341358641,339.408370452119,341.821812062645,0,0,-5.3024446818507,-360,360,0,0,0,0,5.6843418860808e-14,0
101,NY2025:CEEC:GORDON_XFMR,9102,9103,1,1200,123.420861056832,123.08674849538,0,0,-1.77096021000489,-360,360,0,0,0,0,5.69543329542959e-14,0
102,NY2025:NYES:1,9001,9104,1,1800,320.428040131771,318.52056433621,0,0,1.68220613482485,-360,360,0,0,0,0,1.38020983160212e-12,0
103,NY2025:NYES:2,9104,73,1,1800,318.520564336209,316.574846720328,0,0,2.43162889369694,-360,360,0,0,0,0,2.7780040188811e-12,0
104,NY2025:SMART_PATH:1,1220,48,1,575,335.368298709913,352.388149507449,0,0,-21.3836162661496,-360,360,0,0,0,0,1.9668690549205e-13,0
105,NY2025:SMART_PATH:2,1220,48,1,575,335.272552817289,352.288586928591,0,0,-21.3836162661496,-360,360,0,0,0,0,2.06913167894542e-13,0
106,NY2025:SMART_PATH:3,1220,44,1,453,335.320425756336,334.626698895965,0,0,13.0820792800148,-360,360,0,0,0,0,2.54211497292521e-13,0
107,NY2025:SMART_PATH:4,1220,44,1,453,335.320425756336,334.626698895965,0,0,13.0820792800148,-360,360,0,0,0,0,2.54211497292521e-13,0
108,NY2025:NYC:DELIVERY:95:1,78,1130,1,908.848753535103,277.24148159041,277.282289025464,0,0,1.19807333945419,-360,360,0,0,0,0,7.99360577730113e-15,0
109,NY2025:NYC:DELIVERY:95:2,1130,79,1,908.848753535103,300.848777242114,300.949953839365,0,0,1.29947813926689,-360,360,0,0,0,0,6.13550669440974e-14,0
110,NY2025:NYC:DELIVERY:240:1,78,557,1,1390.53859290871,424.818126467295,424.892290285148,0,0,1.20177586652491,-360,360,0,0,0,0,5.6843418860808e-14,0
111,NY2025:NYC:DELIVERY:240:2,557,79,1,1390.53859290871,458.262494409169,458.404057439919,0,0,1.29577561219617,-360,360,0,0,0,0,6.35528743231302e-14,0
112,NY2025:NYC:DELIVERY:97:1,78,1129,1,503.818330764024,6.99308600280645,6.98900921732253,0,0,-0.0430990630261689,-360,360,0,0,0,0,7.15637050660831e-13,0
113,NY2025:NYC:DELIVERY:97:2,1129,81,1,503.818330764024,16.6505039358839,16.6350273556869,0,0,-0.118598692132771,-360,360,0,0,0,0,2.26231317950791e-12,0
114,NY2025:NYC:DELIVERY:239:1,78,1129,1,1158.78216075726,16.0578587100424,16.0484974001335,0,0,-0.0430990630261689,-360,360,0,0,0,0,3.19880981325577e-12,0
115,NY2025:NYC:DELIVERY:239:2,1129,81,1,1158.78216075726,38.2336838909326,38.1981458269049,0,0,-0.118598692132771,-360,360,0,0,0,0,6.39994425038088e-12,0
116,NY2025:NYC:RAINEY_XFMR,1130,1529,1,1500,23.9113344478778,23.9410470850082,0,0,-0.432806642991466,-360,360,0,0,0,0,5.10207288215731e-13,0
117,NY2025:NYC:ASTORIA_XFMR,557,1493,1,1500,34.1516055802038,34.2008325832885,0,0,-0.474748208678719,-360,360,0,0,0,0,7.1607233460989e-15,0
118,NY2025:NYC:CORONA_BASELINE,1493,601,1,2248,34.200832583288,34.558269697789,0,0,-0.0191908872606135,-360,360,0,0,0,0,1.77635683940025e-15,0
119,NY2025:RCC_QUEENS:CABLE,1529,601,1,300,23.9410470850094,23.686072186603,0,0,-0.0574299258771447,-360,360,0,0,0,0,3.20309360286368e-12,0
120,NY2025:RCC_BROOKLYN:PAR,1129,9112,1,300,32.9210134332115,32.9988610895345,0,0,0.542446489169944,-360,360,0,0,0,0,5.06744513406454e-13,0
121,NY2025:RCC_BROOKLYN:CABLE,9112,9111,1,300,32.9988610895286,32.8294416019461,0,0,0.0136870343008582,-360,360,0,0,0,0,7.32410687763558e-15,0
122,NY2025:RCC_STATEN:PAR,81,9113,1,300,28.837593376321,28.9265894036873,0,0,0.457583256241083,-360,360,0,0,0,0,8.02834687701185e-13,0
123,NY2025:RCC_STATEN:CABLE,9113,9114,1,300,28.9265894036864,27.1401806905647,0,0,0.106180625253902,-360,360,0,0,0,0,3.97205464519564e-15,0
124,NY2025:NYC:GREENWOOD_CORONA,9111,601,1,600,58.629295219095,57.916151583331,0,0,0.194802310140943,-360,360,0,0,0,0,7.105427357601e-15,0
125,NY2025:NYC:FOX_GREENWOOD,9114,9111,1,600,27.140180690561,26.2147233573835,0,0,0.110968334108588,-360,360,0,0,0,0,3.5527136788005e-15,0
